!UKS B3LYP def2-TZVP Slowconv NoTrah NoRI VeryTightSCF
!MORead

%pal
    nprocs  16
end

%moinp  "RC-highspin.gbw"

%scf
    Flipspin        45
    FinalMs         0.5
    MaxIter         500
end

*xyz +1 12
 C		41.75403		53.28594		36.47089
 N		42.78753		53.11575		35.57581
 H		43.16994		53.82901		34.93449
 C		43.13114		51.81325		35.56784
 H		43.90950		51.37773		34.94414
 N		42.37607		51.13571		36.42691
 C		41.50665		52.03904		37.00144
 H		40.82544		51.73164		37.79505
 C		40.09202		47.27196		33.79593
 N		40.01563		48.58847		33.38565
 H		39.43866		49.00474		32.64677
 C		40.81932		49.32188		34.18498
 H		40.95055		50.39694		34.07925
 N		41.40562		48.54888		35.08628
 C		40.96397		47.26826		34.85989
 H		41.28483		46.44894		35.49587
 C		38.24865		48.45183		37.81335
 H		38.06635		49.38048		37.25970
 H		37.98920		48.64643		38.86583
 C		39.73354		48.12878		37.79602
 O		40.09424		46.93213		38.07281
 O		40.52803		49.07737		37.61504
 C		38.64939		43.85153		40.73232
 N		39.75318		43.46223		41.46909
 H		39.79405		42.88321		42.31374
 C		40.85619		43.95040		40.87085
 H		41.86208		43.73437		41.21668
 N		40.53337		44.65182		39.79100
 C		39.15956		44.58428		39.68656
 H		38.64310		45.07085		38.86947
 C		42.78301		43.20389		35.50791
 N		41.70402		42.56435		36.07633
 H		41.38662		41.60923		35.87328
 C		41.22751		43.34662		37.06020
 H		40.41347		43.06024		37.71905
 N		41.93585		44.46949		37.14463
 C		42.92016		44.39135		36.18173
 H		43.65411		45.17925		36.03284
 C		45.76587		48.09327		34.01347
 H		45.12996		47.64758		33.22625
 H		46.66030		47.46138		34.10695
 C		44.95577		48.01686		35.29973
 O		44.14613		48.94934		35.56215
 O		45.08740		46.97457		36.01411
 Fe		42.54033		49.05049		36.87039
 Fe		41.81627		46.03465		38.62397
 O		42.83867		47.18229		37.39246
 H		43.73492		46.94286		37.02348
 C		43.49167		47.06037		40.65787
 C		43.62987		47.67506		42.05581
 C		45.10300		47.59033		42.50474
 C		45.62301		46.15243		42.46240
 C		45.40189		45.47910		41.08480
 C		43.92995		45.59891		40.70191
 O		42.19103		47.12374		40.15874
 O		42.77905		47.01209		42.97498
 O		45.28716		48.11554		43.80319
 O		46.99767		46.17794		42.81101
 O		45.74511		44.11656		41.09014
 O		43.60430		45.05282		39.42323
 H		44.17197		47.60667		39.96927
 H		43.37341		48.74685		41.99147
 H		45.70505		48.16527		41.77049
 H		45.03923		45.57203		43.19495
 H		46.01899		46.03720		40.34589
 H		43.33990		45.09204		41.48188
 H		42.10859		47.68790		43.28977
 H		45.23130		49.11516		43.72228
 H		47.38229		45.25422		42.73309
 H		46.61333		43.98248		41.55557
 H		43.51869		44.03919		39.45235
 O		42.87964		49.71258		38.89705
 O		44.05578		49.61518		38.40447
 H		41.30382		54.25088		36.70388
 H		39.55092		46.42585		33.37239
 H		37.60102		47.66437		37.42791
 H		37.60539		43.64548		40.96829
 H		43.42804		42.77098		34.74333
 H		46.04434		49.08634		33.66087
*

