! B3LYP/G cc-pVTZ TightSCF NoRI 

%pal
    nprocs 16
end

%scf
    STABPerform true
end

*xyz 2 1 
 Fe                 6.20397196    1.03714637    0.17096759
 O                  8.02343961    0.99562593    0.15635557
 O                  6.24694430   -0.78162449    0.11972374
 O                  6.22607513    1.15774049   -1.64489818
 O                  4.38440248    1.01816527    0.20570458
 O                  6.16557932    2.85626904    0.21242489
 O                  6.16850601    1.06001114    1.99047834
 H                  4.06545864    1.78648828    0.68482314
 H                  4.08101507    0.21943896    0.64341723
 H                  6.97846238    3.18466572    0.60354733
 H                  5.41693185    3.14865831    0.73743487
 H                  6.90726982    0.55047930    2.33136739
 H                  5.34491271    0.67543823    2.29934360
 H                  8.36474659    1.75961228    0.62692374
 H                  8.32866067    0.19290442    0.58539903
 H                  7.07410906   -1.09285932    0.49459883
 H                  5.51267410   -1.13351772    0.62826915
 H                  6.97521418    0.66593956   -1.98916919
 H                  5.41263500    0.79176715   -1.99983292
*

