! def2-SVP pal4 VeryTightSCF
! MOread

%moinp  "CH2-ROHF.gbw"

%casscf
    mult    3
    nel     2
    norb    2
end

*xyz 0 3
 C   -0.56828011888064      0.21526016701941      0.00000000000000
 H   -0.02093310180940     -0.71582241410459      0.00000000000000
 H   -1.62855716930996      0.42096895708518      0.00000000000000
*
