%chk=Opt-UHF.chk
#P B3LYP/6-31G*

Generated by Multiwfn

  2  5
Fe    -0.64234800    0.51819000    0.11510700
O      0.37946900    2.18524600   -0.88056800
H      0.77997300    2.93927600   -0.46006700
O     -1.27091900   -0.20443200   -1.85905700
H     -2.02005700    0.09697100   -2.36289300
O     -0.01375100    1.24077900    2.08926900
H      0.73543000    0.93939600    2.59305400
O     -1.66413300   -1.14888500    1.11075800
H     -2.06479600   -1.90283400    0.69026400
O     -2.51124300    1.66201300    0.23143100
H     -2.62970000    2.58121400    0.01504600
O      1.22657100   -0.62560800   -0.00121100
H      1.34496600   -1.54486500    0.21497200
H     -3.36279900    1.33399100    0.50190900
H     -0.84381400   -0.87573000   -2.38128900
H      2.07817500   -0.29755200   -0.27149200
H      0.51425400    2.29199000   -1.81670000
H     -0.44081500    1.91209500    2.61151100
H     -1.79875400   -1.25569600    2.04690600
 
