! Opt UHF cc-pVDZ pal8 

*xyz 0 3
 C                 -3.54503462    1.42032330    0.00000000
 C                 -2.03831662    1.42032330    0.00000000
 H                 -3.93954762    0.89769030   -0.90484200
 H                 -3.93946962    0.89782430    0.90497600
 C                 -1.48072562    0.01247230    0.00017800
 H                 -1.66112262    1.97036130   -0.90243600
 H                 -1.66472362    1.95090830    0.91549200
 C                  0.02600838    0.01250030    0.00011300
 H                 -1.85790062   -0.53755170    0.90259600
 H                 -1.85796462   -0.53775270   -0.90209700
 H                  0.42031938    0.53512630   -0.90484300
 H                  0.42039938    0.53541730    0.90486600
 C                  0.56220601   -1.43113818    0.00031849
 H                  0.21347688   -1.94126132   -0.87321593
 H                  0.21362128   -1.94095952    0.87408670
 C                  2.10201396   -1.40681857    0.00018754
 H                  2.47456685   -2.40986610    0.00029601
 H                  2.45059794   -0.89696726   -0.87356348
 C                  2.60392335   -0.67266515    1.25744874
 H                  2.61493393    0.38149845    1.07436987
 H                  1.95187673   -0.88524103    2.07875666
*

