21
Coordinates from ORCA-job /scratch/C7H14-Opt_607/C7H14-Opt E -273.126936348491
  C      -3.545035      1.420323      0.000000
  C      -2.038317      1.420323      0.000000
  H      -3.939548      0.897690     -0.904842
  H      -3.939470      0.897824      0.904976
  C      -1.480726      0.012472      0.000178
  H      -1.661123      1.970361     -0.902436
  H      -1.664724      1.950908      0.915492
  C       0.026008      0.012500      0.000113
  H      -1.857901     -0.537552      0.902596
  H      -1.857965     -0.537753     -0.902097
  H       0.420319      0.535126     -0.904843
  H       0.420399      0.535417      0.904866
  C       0.562206     -1.431138      0.000318
  H       0.213477     -1.941261     -0.873216
  H       0.213621     -1.940960      0.874087
  C       2.102014     -1.406819      0.000188
  H       2.474567     -2.409866      0.000296
  H       2.450598     -0.896967     -0.873563
  C       2.603923     -0.672665      1.257449
  H       2.614934      0.381498      1.074370
  H       1.951877     -0.885241      2.078757
21
Coordinates from ORCA-job /scratch/C7H14-Opt_607/C7H14-Opt E -273.144849887673
  C      -3.622134      1.409152     -0.029324
  C      -2.110418      1.433644     -0.015516
  H      -4.047087      0.940633     -0.925986
  H      -4.063274      0.948487      0.863494
  C      -1.513444      0.026137     -0.006562
  H      -1.740074      1.978595     -0.896416
  H      -1.759440      1.969769      0.879103
  C       0.008676      0.027611      0.006195
  H      -1.884038     -0.517355      0.875652
  H      -1.869348     -0.523432     -0.891329
  H       0.391547      0.551980     -0.880661
  H       0.370997      0.559033      0.892328
  C       0.589087     -1.401703      0.011440
  H       0.234490     -1.919730     -0.877858
  H       0.228493     -1.927825      0.893763
  C       2.136265     -1.427404      0.010454
  H       2.471003     -2.463920     -0.011205
  H       2.499822     -0.924689     -0.883135
  C       2.722194     -0.742925      1.251373
  H       2.867942      0.326118      1.128539
  H       2.157881     -0.947952      2.158337
21
Coordinates from ORCA-job /scratch/C7H14-Opt_607/C7H14-Opt E -273.152373633642
  C      -3.645893      1.391652     -0.044743
  C      -2.137364      1.425707     -0.022757
  H      -4.108140      0.996315     -0.948023
  H      -4.134204      1.008794      0.850097
  C      -1.525383      0.016669     -0.009786
  H      -1.767223      1.969659     -0.895055
  H      -1.795347      1.968503      0.861967
  C       0.003122      0.023887      0.010107
  H      -1.894439     -0.526186      0.864988
  H      -1.872487     -0.534347     -0.888592
  H       0.378162      0.557114     -0.869007
  H       0.350237      0.568636      0.891937
  C       0.601561     -1.388641      0.018088
  H       0.249887     -1.920072     -0.872494
  H       0.237329     -1.927569      0.899749
  C       2.140404     -1.418966      0.018975
  H       2.464339     -2.464409     -0.017004
  H       2.509157     -0.924326     -0.884490
  C       2.748462     -0.756694      1.237927
  H       2.985857      0.303902      1.155648
  H       2.281101     -0.995402      2.195153
21
Coordinates from ORCA-job /scratch/C7H14-Opt_607/C7H14-Opt E -273.156180053686
  C      -3.663666      1.376532     -0.060675
  C      -2.160912      1.410777     -0.031135
  H      -4.151603      1.052661     -0.976966
  H      -4.187441      1.071511      0.842186
  C      -1.538016      0.004236     -0.012008
  H      -1.787310      1.955354     -0.903506
  H      -1.823412      1.962901      0.851106
  C      -0.007903      0.021949      0.014639
  H      -1.908722     -0.540437      0.862588
  H      -1.879641     -0.552385     -0.890889
  H       0.361452      0.566239     -0.861917
  H       0.326372      0.581685      0.893146
  C       0.606889     -1.377675      0.028199
  H       0.256627     -1.924666     -0.854626
  H       0.243036     -1.925748      0.905709
  C       2.143830     -1.403190      0.027385
  H       2.463848     -2.450111     -0.028356
  H       2.512007     -0.914208     -0.880491
  C       2.773401     -0.762656      1.232754
  H       3.083970      0.278128      1.179936
  H       2.406332     -1.056675      2.215608
21
Coordinates from ORCA-job /scratch/C7H14-Opt_607/C7H14-Opt E -273.157965136972
  C      -3.676438      1.364970     -0.072114
  C      -2.176982      1.392124     -0.039668
  H      -4.182370      1.111524     -0.998587
  H      -4.222551      1.138082      0.838282
  C      -1.546592     -0.010000     -0.013673
  H      -1.801197      1.934024     -0.913348
  H      -1.839715      1.951136      0.838788
  C      -0.017667      0.017637      0.015957
  H      -1.917860     -0.554093      0.861462
  H      -1.885557     -0.571955     -0.890544
  H       0.347580      0.567215     -0.859754
  H       0.310595      0.588880      0.890694
  C       0.608763     -1.373706      0.036763
  H       0.259889     -1.936578     -0.835827
  H       0.249299     -1.924637      0.913671
  C       2.145305     -1.384741      0.032329
  H       2.471488     -2.428631     -0.041371
  H       2.508034     -0.892740     -0.875584
  C       2.782297     -0.756732      1.236362
  H       3.134559      0.268588      1.205093
  H       2.518259     -1.126143      2.223758
21
Coordinates from ORCA-job /scratch/C7H14-Opt_607/C7H14-Opt E -273.158541284831
  C      -3.685562      1.357467     -0.077858
  C      -2.186017      1.379988     -0.046569
  H      -4.202056      1.152095     -1.009457
  H      -4.241367      1.185654      0.837759
  C      -1.551321     -0.019224     -0.014752
  H      -1.810575      1.918467     -0.923112
  H      -1.847204      1.943540      0.828968
  C      -0.023608      0.014408      0.014451
  H      -1.921804     -0.561549      0.862202
  H      -1.889526     -0.586042     -0.889203
  H       0.340417      0.562425     -0.862951
  H       0.304421      0.590608      0.885939
  C       0.609669     -1.373999      0.042172
  H       0.261365     -1.946894     -0.823851
  H       0.255324     -1.921737      0.922828
  C       2.146855     -1.372793      0.034299
  H       2.482650     -2.412668     -0.050320
  H       2.503576     -0.870273     -0.869904
  C       2.780721     -0.751078      1.243855
  H       3.147234      0.268267      1.225560
  H       2.595947     -1.182438      2.222631
21
Coordinates from ORCA-job /scratch/C7H14-Opt_607/C7H14-Opt E -273.158707863430
  C      -3.691108      1.351516     -0.080297
  C      -2.190934      1.373935     -0.051814
  H      -4.214672      1.175095     -1.013196
  H      -4.250828      1.214203      0.838051
  C      -1.553728     -0.023836     -0.015607
  H      -1.817810      1.909287     -0.931101
  H      -1.851083      1.940557      0.821230
  C      -0.026629      0.012972      0.011828
  H      -1.922495     -0.563837      0.863362
  H      -1.891719     -0.594530     -0.887527
  H       0.337073      0.556531     -0.868351
  H       0.303124      0.591100      0.881245
  C       0.609966     -1.374903      0.045031
  H       0.261925     -1.952480     -0.818004
  H       0.259466     -1.917479      0.930280
  C       2.147754     -1.366426      0.035474
  H       2.490898     -2.403065     -0.055404
  H       2.499794     -0.852287     -0.863911
  C       2.776096     -0.748884      1.251188
  H       3.146107      0.268838      1.241239
  H       2.647943     -1.222082      2.218973
21
Coordinates from ORCA-job /scratch/C7H14-Opt_607/C7H14-Opt E -273.158738680802
  C      -3.693399      1.347783     -0.080824
  C      -2.192942      1.372493     -0.054773
  H      -4.221315      1.182606     -1.013204
  H      -4.254562      1.224864      0.838554
  C      -1.554534     -0.024813     -0.016094
  H      -1.822066      1.906004     -0.936005
  H      -1.852704      1.940954      0.816825
  C      -0.027491      0.013103      0.009658
  H      -1.921771     -0.562961      0.864548
  H      -1.892652     -0.597817     -0.886368
  H       0.335765      0.553084     -0.872779
  H       0.303557      0.591999      0.877897
  C       0.609862     -1.375146      0.045845
  H       0.262088     -1.953590     -0.816704
  H       0.260868     -1.914179      0.933766
  C       2.148044     -1.364402      0.036332
  H       2.493998     -2.399573     -0.057443
  H       2.497979     -0.843084     -0.859719
  C       2.773216     -0.749480      1.255716
  H       3.143382      0.268147      1.250298
  H       2.673814     -1.241770      2.217162
21
Coordinates from ORCA-job /scratch/C7H14-Opt_607/C7H14-Opt E -273.158743165094
  C      -3.693920      1.346243     -0.080665
  C      -2.193471      1.372766     -0.055979
  H      -4.223972      1.182931     -1.012150
  H      -4.255499      1.226413      0.838856
  C      -1.554597     -0.024430     -0.016234
  H      -1.823867      1.905457     -0.938154
  H      -1.853109      1.942107      0.814920
  C      -0.027430      0.013658      0.008460
  H      -1.920947     -0.561485      0.865387
  H      -1.892994     -0.598433     -0.885691
  H       0.335283      0.551964     -0.875176
  H       0.304174      0.593012      0.876127
  C       0.609661     -1.374976      0.045699
  H       0.262248     -1.952947     -0.817264
  H       0.260662     -1.912692      0.934355
  C       2.148031     -1.364257      0.036880
  H       2.494212     -2.399129     -0.057848
  H       2.497703     -0.840260     -0.857701
  C       2.772184     -0.750582      1.257558
  H       3.141956      0.267222      1.254167
  H       2.682829     -1.248357      2.217140
21
Coordinates from ORCA-job /scratch/C7H14-Opt_607/C7H14-Opt E -273.158745283208
  C      -3.693930      1.345777     -0.080390
  C      -2.193556      1.373313     -0.056536
  H      -4.225133      1.181579     -1.011113
  H      -4.255554      1.225512      0.839101
  C      -1.554497     -0.023862     -0.016210
  H      -1.824657      1.905549     -0.939246
  H      -1.853064      1.943185      0.813939
  C      -0.027210      0.014160      0.007742
  H      -1.920308     -0.560185      0.866060
  H      -1.893230     -0.598386     -0.885171
  H       0.334993      0.551695     -0.876555
  H       0.304685      0.593877      0.875031
  C       0.609471     -1.374729      0.045316
  H       0.262470     -1.952070     -0.818195
  H       0.260003     -1.912121      0.933940
  C       2.147941     -1.364512      0.037272
  H       2.493713     -2.399432     -0.057776
  H       2.497959     -0.839620     -0.856640
  C       2.771774     -0.751482      1.258377
  H       3.140988      0.266564      1.256117
  H       2.686280     -1.250586      2.217626
21
Coordinates from ORCA-job /scratch/C7H14-Opt_607/C7H14-Opt E -273.158745546596
  C      -3.693788      1.345950     -0.080153
  C      -2.193484      1.373788     -0.056812
  H      -4.225508      1.180088     -1.010334
  H      -4.255204      1.224048      0.839301
  C      -1.554416     -0.023401     -0.016100
  H      -1.824927      1.905707     -0.939850
  H      -1.852812      1.944021      0.813355
  C      -0.027056      0.014500      0.007320
  H      -1.919913     -0.559214      0.866609
  H      -1.893486     -0.598246     -0.884715
  H       0.334747      0.551752     -0.877315
  H       0.305045      0.594496      0.874340
  C       0.609304     -1.374514      0.044919
  H       0.262703     -1.951369     -0.819054
  H       0.259278     -1.912060      0.933203
  C       2.147820     -1.364759      0.037560
  H       2.493149     -2.399801     -0.057561
  H       2.498336     -0.839762     -0.856087
  C       2.771544     -0.752033      1.258758
  H       3.140055      0.266294      1.257206
  H       2.687753     -1.251260      2.218099
