19
Coordinates from ORCA-job /scratch/opt-UHF_543/opt-UHF E -1717.708498409601
  Fe     -0.642572      0.518039      0.115153
  O       0.111747      2.150274     -0.780033
  H       0.707668      2.715906     -0.253469
  O      -1.311938     -0.302544     -1.591540
  H      -1.936484      0.130931     -2.200908
  O       0.027209      1.339406      1.821227
  H       0.652588      0.906869      2.430403
  O      -1.396481     -1.114448      1.010239
  H      -1.993314     -1.679405      0.483975
  O      -2.286820      1.633408      0.410054
  H      -2.353770      2.472911     -0.083018
  O       1.001944     -0.597123     -0.179502
  H       1.068078     -1.437588      0.312025
  H      -3.189221      1.272802      0.480364
  H      -0.665220     -0.783520     -2.141795
  H       1.904546     -0.236783     -0.248450
  H       0.437767      2.171136     -1.697943
  H      -0.618756      1.821240      2.371599
  H      -1.721260     -1.135950      1.928569
19
Coordinates from ORCA-job /scratch/opt-UHF_543/opt-UHF E -1717.732026464172
  Fe     -0.642530      0.518076      0.115159
  O       0.136728      2.174243     -0.795950
  H       0.698148      2.746299     -0.282273
  O      -1.317158     -0.308850     -1.628685
  H      -1.926802      0.099903     -2.233401
  O       0.032456      1.345622      1.858505
  H       0.642832      0.937658      2.463015
  O      -1.421472     -1.138338      1.026088
  H      -1.983780     -1.709737      0.512640
  O      -2.319993      1.650912      0.403449
  H      -2.382237      2.484013     -0.053053
  O       1.035163     -0.614574     -0.172918
  H       1.096646     -1.448537      0.282108
  H      -3.206807      1.314988      0.475176
  H      -0.699584     -0.802387     -2.159103
  H       1.922169     -0.278893     -0.243347
  H       0.457971      2.211725     -1.690273
  H      -0.584474      1.839868      2.389013
  H      -1.741566     -1.176433      1.920801
19
Coordinates from ORCA-job /scratch/opt-UHF_543/opt-UHF E -1717.747702681840
  Fe     -0.642479      0.518119      0.115162
  O       0.168559      2.209214     -0.821936
  H       0.712912      2.794357     -0.314611
  O      -1.329433     -0.318585     -1.680238
  H      -1.938137      0.071649     -2.290260
  O       0.044764      1.355247      1.910204
  H       0.654107      0.965656      2.519999
  O      -1.453320     -1.173206      1.051997
  H      -1.998557     -1.757696      0.544864
  O      -2.368335      1.674338      0.398781
  H      -2.431572      2.512839     -0.035978
  O       1.083553     -0.637945     -0.168284
  H       1.146043     -1.477245      0.265041
  H      -3.256017      1.356678      0.476511
  H      -0.727947     -0.826909     -2.205516
  H       1.971426     -0.320518     -0.244743
  H       0.488201      2.265088     -1.710548
  H      -0.556190      1.864148      2.435536
  H      -1.771869     -1.229669      1.940969
19
Coordinates from ORCA-job /scratch/opt-UHF_543/opt-UHF E -1717.756908551983
  Fe     -0.642429      0.518157      0.115161
  O       0.199867      2.244102     -0.848878
  H       0.732675      2.846795     -0.341659
  O      -1.342777     -0.328069     -1.731701
  H      -1.957356      0.049327     -2.350468
  O       0.058137      1.364625      1.961792
  H       0.673276      0.987754      2.580318
  O      -1.484640     -1.207992      1.078881
  H      -2.018343     -1.810038      0.571830
  O      -2.417161      1.697140      0.394886
  H      -2.480679      2.548800     -0.023492
  O       1.132420     -0.660707     -0.164427
  H       1.195194     -1.513111      0.252544
  H      -3.312990      1.391804      0.480125
  H      -0.750097     -0.855467     -2.256084
  H       2.028444     -0.355598     -0.248407
  H       0.519221      2.316270     -1.740959
  H      -0.534114      1.892488      2.486191
  H      -1.802937     -1.280719      1.971297
19
Coordinates from ORCA-job /scratch/opt-UHF_543/opt-UHF E -1717.760174396489
  Fe     -0.642391      0.518181      0.115157
  O       0.225186      2.265471     -0.864236
  H       0.735581      2.888241     -0.354351
  O      -1.346934     -0.332216     -1.767715
  H      -1.970021      0.032320     -2.389018
  O       0.062303      1.368693      1.997889
  H       0.685877      1.004604      2.618960
  O      -1.509968     -1.229284      1.094211
  H      -2.021252     -1.851431      0.584454
  O      -2.449185      1.712700      0.386831
  H      -2.506256      2.579179     -0.005958
  O       1.164478     -0.676250     -0.156402
  H       1.220839     -1.543392      0.235024
  H      -3.349175      1.416525      0.483975
  H      -0.766520     -0.885607     -2.282695
  H       2.064667     -0.380285     -0.252316
  H       0.537973      2.351449     -1.759733
  H      -0.517762      1.922456      2.512859
  H      -1.821731     -1.315794      1.990014
19
Coordinates from ORCA-job /scratch/opt-UHF_543/opt-UHF E -1717.761527739007
  Fe     -0.642365      0.518192      0.115152
  O       0.243762      2.273683     -0.868860
  H       0.727639      2.915571     -0.357019
  O      -1.343061     -0.331281     -1.788155
  H      -1.976320      0.020501     -2.406514
  O       0.058423      1.367706      2.018375
  H       0.692107      1.016329      2.636523
  O      -1.528549     -1.237449      1.098828
  H      -2.013288     -1.878751      0.587068
  O      -2.464835      1.720801      0.375711
  H      -2.513671      2.600253      0.011961
  O       1.180153     -0.684351     -0.145298
  H       1.228342     -1.564370      0.217167
  H      -3.365165      1.431109      0.488038
  H      -0.777395     -0.910976     -2.290263
  H       2.080685     -0.394839     -0.256463
  H       0.544807      2.371051     -1.767207
  H      -0.506948      1.947711      2.520456
  H      -1.828613     -1.335329      1.997448
19
Coordinates from ORCA-job /scratch/opt-UHF_543/opt-UHF E -1717.762376976568
  Fe     -0.642342      0.518196      0.115145
  O       0.259268      2.273924     -0.867971
  H       0.719203      2.932740     -0.356771
  O      -1.334664     -0.326554     -1.800336
  H      -1.980831      0.011815     -2.412075
  O       0.050009      1.362941      2.030583
  H       0.696540      1.024945      2.642142
  O      -1.544056     -1.237653      1.097945
  H      -2.004808     -1.895926      0.586780
  O      -2.471854      1.724088      0.362231
  H      -2.515062      2.613836      0.025503
  O       1.187199     -0.687646     -0.131830
  H       1.229832     -1.577866      0.203722
  H      -3.370638      1.439159      0.493585
  H      -0.784317     -0.928823     -2.291552
  H       2.086184     -0.402861     -0.262111
  H       0.544053      2.381971     -1.769900
  H      -0.500093      1.965470      2.521756
  H      -1.827914     -1.346195      2.000107
19
Coordinates from ORCA-job /scratch/opt-UHF_543/opt-UHF E -1717.763075422957
  Fe     -0.642320      0.518197      0.115134
  O       0.273267      2.268298     -0.864374
  H       0.713489      2.942609     -0.357006
  O      -1.323712     -0.318280     -1.807533
  H      -1.984791      0.006317     -2.410144
  O       0.039036      1.354637      2.037793
  H       0.700412      1.030382      2.640262
  O      -1.558049     -1.231992      1.094360
  H      -1.999036     -1.905800      0.586988
  O      -2.473967      1.723323      0.346866
  H      -2.515709      2.621332      0.034215
  O       1.189341     -0.686893     -0.116481
  H       1.230580     -1.585290      0.195118
  H      -3.369997      1.441858      0.499947
  H      -0.789071     -0.939259     -2.291739
  H       2.085572     -0.405532     -0.268577
  H       0.538676      2.386487     -1.770530
  H      -0.495418      1.975823      2.521941
  H      -1.822591     -1.350657      2.000708
19
Coordinates from ORCA-job /scratch/opt-UHF_543/opt-UHF E -1717.763707974612
  Fe     -0.642295      0.518197      0.115120
  O       0.286958      2.257767     -0.860118
  H       0.711841      2.947155     -0.360440
  O      -1.311522     -0.306118     -1.811915
  H      -1.988575      0.005191     -2.403532
  O       0.026823      1.342450      2.042180
  H       0.704097      1.031443      2.633703
  O      -1.571725     -1.221421      1.090125
  H      -1.997324     -1.910342      0.590411
  O      -2.473729      1.718572      0.329703
  H      -2.519122      2.623392      0.038669
  O       1.189137     -0.682155     -0.099341
  H       1.234092     -1.587295      0.190766
  H      -3.366028      1.439099      0.505830
  H      -0.793644     -0.942524     -2.293838
  H       2.081636     -0.402745     -0.274559
  H       0.531143      2.384979     -1.770896
  H      -0.490944      1.979003      2.524029
  H      -1.815109     -1.349088      2.001053
19
Coordinates from ORCA-job /scratch/opt-UHF_543/opt-UHF E -1717.764243197829
  Fe     -0.642266      0.518199      0.115103
  O       0.302005      2.243870     -0.857391
  H       0.716479      2.948007     -0.369569
  O      -1.299393     -0.290021     -1.816349
  H      -1.993197      0.009071     -2.394948
  O       0.014671      1.326330      2.046614
  H       0.708611      1.027485      2.625177
  O      -1.586749     -1.207478      1.087423
  H      -2.001890     -1.911182      0.599544
  O      -2.474236      1.710418      0.310697
  H      -2.528942      2.620627      0.038494
  O       1.189683     -0.674015     -0.080369
  H       1.244010     -1.584485      0.191035
  H      -3.361650      1.430994      0.510735
  H      -0.799336     -0.938343     -2.301313
  H       2.077293     -0.394612     -0.279568
  H       0.523337      2.378361     -1.773099
  H      -0.485370      1.974731      2.531489
  H      -1.807349     -1.342397      2.003244
19
Coordinates from ORCA-job /scratch/opt-UHF_543/opt-UHF E -1717.764627938358
  Fe     -0.642237      0.518202      0.115086
  O       0.319521      2.229733     -0.857565
  H       0.728168      2.946947     -0.383782
  O      -1.288476     -0.271799     -1.823711
  H      -1.999890      0.015846     -2.386866
  O       0.003735      1.308086      2.053976
  H       0.715196      1.020620      2.617162
  O      -1.604236     -1.193293      1.087625
  H      -2.013493     -1.910113      0.613774
  O      -2.478204      1.701106      0.290567
  H      -2.545664      2.615005      0.033477
  O       1.193687     -0.664714     -0.060281
  H       1.260826     -1.578823      0.196143
  H      -3.359225      1.419867      0.515730
  H      -0.805549     -0.928221     -2.315391
  H       2.074897     -0.383460     -0.284687
  H       0.515894      2.369846     -1.778325
  H      -0.479276      1.964521      2.545556
  H      -1.799963     -1.333798      2.008462
19
Coordinates from ORCA-job /scratch/opt-UHF_543/opt-UHF E -1717.764859321511
  Fe     -0.642212      0.518206      0.115071
  O       0.338879      2.216568     -0.859996
  H       0.744666      2.944519     -0.400100
  O      -1.278736     -0.252951     -1.833838
  H      -2.008458      0.023781     -2.378984
  O      -0.006018      1.289220      2.064105
  H       0.723666      1.012595      2.609355
  O      -1.623566     -1.180085      1.090082
  H      -2.029879     -1.907696      0.630115
  O      -2.485223      1.691884      0.270057
  H      -2.565985      2.608034      0.024650
  O       1.200734     -0.655499     -0.039818
  H       1.281236     -1.571809      0.205076
  H      -3.358109      1.407171      0.521585
  H      -0.810946     -0.914505     -2.333434
  H       2.073793     -0.370746     -0.290703
  H       0.508068      2.360757     -1.785655
  H      -0.473980      1.950732      2.563595
  H      -1.792219     -1.324617      2.015784
19
Coordinates from ORCA-job /scratch/opt-UHF_543/opt-UHF E -1717.765008307038
  Fe     -0.642196      0.518209      0.115061
  O       0.359002      2.203831     -0.863813
  H       0.763793      2.940401     -0.416839
  O      -1.269874     -0.233697     -1.845292
  H      -2.018004      0.033315     -2.370067
  O      -0.014886      1.269958      2.075559
  H       0.733132      1.002983      2.600511
  O      -1.643664     -1.167319      1.093925
  H      -2.048842     -1.903637      0.646888
  O      -2.493888      1.682511      0.249568
  H      -2.587370      2.599870      0.013163
  O       1.209414     -0.646128     -0.019375
  H       1.302710     -1.563590      0.216707
  H      -3.356890      1.392367      0.527824
  H      -0.815127     -0.898296     -2.352921
  H       2.072554     -0.355944     -0.297160
  H       0.499443      2.349982     -1.794029
  H      -0.469866      1.934477      2.583083
  H      -1.783732     -1.313733      2.024155
19
Coordinates from ORCA-job /scratch/opt-UHF_543/opt-UHF E -1717.765079079609
  Fe     -0.642199      0.518208      0.115061
  O       0.370464      2.196441     -0.867367
  H       0.775711      2.936958     -0.427405
  O      -1.265983     -0.222101     -1.852263
  H      -2.023495      0.043094     -2.364318
  O      -0.018770      1.258372      2.082528
  H       0.738604      0.993182      2.594789
  O      -1.655116     -1.159935      1.097496
  H      -2.060610     -1.900284      0.657481
  O      -2.499898      1.676407      0.238363
  H      -2.600513      2.593978      0.005782
  O       1.215414     -0.640022     -0.008194
  H       1.315900     -1.557652      0.224211
  H      -3.356417      1.379902      0.529591
  H      -0.817710     -0.887405     -2.364684
  H       2.072034     -0.343497     -0.299106
  H       0.495409      2.339797     -1.800209
  H      -0.467282      1.923589      2.594852
  H      -1.779834     -1.303472      2.030340
19
Coordinates from ORCA-job /scratch/opt-UHF_543/opt-UHF E -1717.765135548232
  Fe     -0.642218      0.518203      0.115070
  O       0.379361      2.189672     -0.872186
  H       0.785174      2.933649     -0.438798
  O      -1.264549     -0.211441     -1.857948
  H      -2.026913      0.059359     -2.359601
  O      -0.020184      1.247741      2.088208
  H       0.742042      0.976936      2.590068
  O      -1.664011     -1.153200      1.102336
  H      -2.069895     -1.897115      0.668909
  O      -2.505886      1.669805      0.230053
  H      -2.613168      2.587399      0.000882
  O       1.221369     -0.633416      0.000103
  H       1.328587     -1.551024      0.229249
  H      -3.356927      1.362921      0.526257
  H      -0.822241     -0.877163     -2.374849
  H       2.072463     -0.326546     -0.295969
  H       0.495402      2.324150     -1.807408
  H      -0.462701      1.913390      2.605023
  H      -1.779997     -1.287759      2.037552
19
Coordinates from ORCA-job /scratch/opt-UHF_543/opt-UHF E -1717.765150232599
  Fe     -0.642240      0.518197      0.115082
  O       0.381654      2.186497     -0.875698
  H       0.786866      2.933055     -0.446394
  O      -1.265877     -0.206614     -1.859576
  H      -2.026106      0.073873     -2.358953
  O      -0.018836      1.242942      2.089830
  H       0.741277      0.962464      2.589388
  O      -1.666308     -1.150064      1.105861
  H      -2.071491     -1.896619      0.676526
  O      -2.508783      1.665795      0.228230
  H      -2.619889      2.583606      0.002128
  O       1.224233     -0.629406      0.001931
  H       1.335308     -1.547210      0.228072
  H      -3.358500      1.350412      0.518940
  H      -0.827810     -0.873282     -2.378705
  H       2.073973     -0.314052     -0.288745
  H       0.500169      2.311190     -1.811863
  H      -0.457071      1.909561      2.608880
  H      -1.784858     -1.274784      2.042018
19
Coordinates from ORCA-job /scratch/opt-UHF_543/opt-UHF E -1717.765182601468
  Fe     -0.642264      0.518190      0.115093
  O       0.381351      2.184799     -0.878720
  H       0.784997      2.934271     -0.453185
  O      -1.268325     -0.204126     -1.859649
  H      -2.023149      0.087643     -2.360605
  O      -0.016371      1.240482      2.089895
  H       0.738369      0.948740      2.590994
  O      -1.666010     -1.148405      1.108895
  H      -2.069580     -1.897902      0.683333
  O      -2.510507      1.662846      0.228992
  H      -2.624837      2.581129      0.006731
  O       1.225922     -0.626459      0.001181
  H       1.340239     -1.544731      0.223497
  H      -3.360831      1.340136      0.509441
  H      -0.834744     -0.872450     -2.380290
  H       2.076254     -0.303781     -0.279281
  H       0.507608      2.299576     -1.815060
  H      -0.450074      1.908785      2.610461
  H      -1.792340     -1.263185      2.045225
19
Coordinates from ORCA-job /scratch/opt-UHF_543/opt-UHF E -1717.765206201647
  Fe     -0.642281      0.518186      0.115100
  O       0.380271      2.184340     -0.880561
  H       0.782249      2.936309     -0.457889
  O      -1.270357     -0.203408     -1.859251
  H      -2.020131      0.096375     -2.363012
  O      -0.014328      1.239783      2.089490
  H       0.735387      0.940038      2.593360
  O      -1.664933     -1.147969      1.110744
  H      -2.066841     -1.899961      0.688046
  O      -2.511311      1.661390      0.230435
  H      -2.627962      2.580184      0.011566
  O       1.226702     -0.625008     -0.000249
  H       1.343342     -1.543796      0.218656
  H      -3.362897      1.334516      0.502023
  H      -0.840456     -0.873381     -2.380802
  H       2.078294     -0.298157     -0.271847
  H       0.513994      2.292649     -1.816614
  H      -0.444317      1.909756      2.610968
  H      -1.798718     -1.256283      2.046787
19
Coordinates from ORCA-job /scratch/opt-UHF_543/opt-UHF E -1717.765192870625
  Fe     -0.642288      0.518185      0.115102
  O       0.379972      2.184464     -0.880914
  H       0.781204      2.937525     -0.459423
  O      -1.270828     -0.203484     -1.859202
  H      -2.019057      0.098282     -2.364118
  O      -0.013854      1.239862      2.089435
  H       0.734326      0.938135      2.594446
  O      -1.664632     -1.148097      1.111099
  H      -2.065821     -1.901166      0.689583
  O      -2.511493      1.661275      0.230872
  H      -2.629100      2.580317      0.013453
  O       1.226876     -0.624898     -0.000679
  H       1.344468     -1.543939      0.216752
  H      -3.363634      1.333643      0.499870
  H      -0.842480     -0.874202     -2.381117
  H       2.079027     -0.297281     -0.269667
  H       0.516071      2.291332     -1.816812
  H      -0.442278      1.910588      2.611279
  H      -1.800767     -1.254982      2.046990
19
Coordinates from ORCA-job /scratch/opt-UHF_543/opt-UHF E -1717.765199405727
  Fe     -0.642291      0.518185      0.115101
  O       0.380137      2.184584     -0.880771
  H       0.781189      2.937976     -0.459662
  O      -1.270646     -0.203582     -1.859339
  H      -2.018977      0.098040     -2.364222
  O      -0.014036      1.239960      2.089569
  H       0.734250      0.938375      2.594540
  O      -1.664797     -1.148215      1.110957
  H      -2.065824     -1.901606      0.689825
  O      -2.511503      1.661471      0.230723
  H      -2.629445      2.580582      0.013706
  O       1.226883     -0.625097     -0.000528
  H       1.344806     -1.544211      0.216489
  H      -3.363640      1.333917      0.499893
  H      -0.842763     -0.874499     -2.381411
  H       2.079032     -0.297553     -0.269673
  H       0.516120      2.291573     -1.816690
  H      -0.441989      1.910886      2.611573
  H      -1.800797     -1.255228      2.046871
