3
Coordinates from ORCA-job CH2-Opt E -38.892094145307
  C      -0.533332      0.264683      0.000000
  H      -0.085622     -0.707148      0.000000
  H      -1.598817      0.362871      0.000000
3
Coordinates from ORCA-job CH2-Opt E -38.893791534077
  C      -0.545205      0.247893      0.000000
  H      -0.052774     -0.717782      0.000000
  H      -1.619792      0.390296      0.000000
3
Coordinates from ORCA-job CH2-Opt E -38.894506407773
  C      -0.562065      0.224050      0.000000
  H      -0.026879     -0.718210      0.000000
  H      -1.628826      0.414567      0.000000
3
Coordinates from ORCA-job CH2-Opt E -38.894565148052
  C      -0.567648      0.216155      0.000000
  H      -0.021266     -0.716258      0.000000
  H      -1.628857      0.420510      0.000000
3
Coordinates from ORCA-job CH2-Opt E -38.894566576127
  C      -0.568282      0.215258      0.000000
  H      -0.020897     -0.715846      0.000000
  H      -1.628591      0.420995      0.000000
3
Coordinates from ORCA-job CH2-Opt E -38.894566117288
  C      -0.568280      0.215260      0.000000
  H      -0.020933     -0.715822      0.000000
  H      -1.628557      0.420969      0.000000
