! TZVP Usesym MOread VeryTightSCF
%moinp	"cytosine-RHF.gbw"

%pal
	nprocs	32
end

%scf
    rotate
        {20,25} {23,26} {30,33} {31,38}
    end
end

%casscf
	nel	    10
	norb    8 
	irrep   0
    mult    1
    NRoots  6
    Rel
        DoSOC               true
        SOCtype             1
        printlevel          3
        SOCints             1
        NRoots              6
    end
    PTMethod
		FIC_CASPT2
	PTSettings	
		CASPT2_IPEAshift	0.10
	end
end

# cytosine

*xyz 0 1
 H 	-2.114860 		-1.429678 		0.000000
 H 	-0.173973 		-2.806186 		0.000000
 H 	2.073228 		-1.658021 		0.000000
 H 	3.175240 		0.564335 		0.000000
 H 	2.235202 		2.033636 		0.000000
 C 	-0.060783 		-1.726152 		0.000000
 C 	1.144884 		-1.099470 		0.000000
 C 	1.107049 		0.338190 		0.000000
 C 	-1.227573 		0.430359 		0.000000
 O 	-2.315109 		0.998271 		0.000000
 N 	0.000000 		1.058130 		0.000000
 N 	-1.201178 		-0.989148 		0.000000
 N 	2.278974 		1.024187 		0.000000
*
