! UKS BP86 def2-TZVP Slowconv NoRI VeryTightSCF

%pal
    nprocs          16
end

%scf
    MaxIter         500
end

*xyz +1 12
 C		41.75734		53.28449		36.46919
 N		42.79051		53.11573		35.57330
 H		43.17228		53.83016		34.93276
 C		43.13470		51.81354		35.56329
 H		43.91258		51.37948		34.93820
 N		42.38034		51.13480		36.42217
 C		41.51102		52.03696		36.99860
 H		40.83095		51.72793		37.79245
 C		40.09781		47.27650		33.80529
 N		40.02170		48.59447		33.39932
 H		39.44553		49.01241		32.66056
 C		40.82359		49.32561		34.20213
 H		40.95446		50.40104		34.10028
 N		41.40873		48.54956		35.10172
 C		40.96816		47.26932		34.87055
 H		41.28796		46.44831		35.50461
 C		38.24452		48.45120		37.81512
 H		38.05954		49.38046		37.26339
 H		37.98665		48.64263		38.86852
 C		39.72949		48.13040		37.79333
 O		40.09429		46.93627		38.07351
 O		40.51997		49.08118		37.60316
 C		38.64927		43.85206		40.73245
 N		39.75373		43.46182		41.46772
 H		39.79496		42.88382		42.31310
 C		40.85618		43.95072		40.86918
 H		41.86248		43.73518		41.21408
 N		40.53224		44.65285		39.79009
 C		39.15837		44.58557		39.68680
 H		38.64146		45.07274		38.87046
 C		42.78261		43.20374		35.50847
 N		41.70457		42.56369		36.07793
 H		41.38806		41.60804		35.87571
 C		41.22829		43.34611		37.06176
 H		40.41508		43.05921		37.72131
 N		41.93561		44.46974		37.14515
 C		42.91935		44.39163		36.18162
 H		43.65310		45.17946		36.03202
 C		45.76058		48.09668		34.01433
 H		45.12510		47.65198		33.22625
 H		46.65442		47.46412		34.10910
 C		44.94912		48.01873		35.29961
 O		44.13484		48.94943		35.55949
 O		45.08257		46.97820		36.01440
 Fe		42.54704		49.05340		36.88791
 Fe		41.81454		46.03362		38.62691
 O		42.83673		47.18336		37.38865
 H		43.73372		46.94370		37.02075
 C		43.49278		47.06016		40.65639
 C		43.63065		47.67500		42.05411
 C		45.10402		47.59104		42.50255
 C		45.62433		46.15327		42.46003
 C		45.40442		45.48020		41.08199
 C		43.93248		45.59938		40.69958
 O		42.19054		47.11944		40.15943
 O		42.78039		47.01168		42.97373
 O		45.28803		48.11581		43.80122
 O		46.99863		46.17840		42.81016
 O		45.74779		44.11749		41.08768
 O		43.60537		45.05344		39.42059
 H		44.16891		47.60985		39.96716
 H		43.37366		48.74650		41.98883
 H		45.70535		48.16646		41.76817
 H		45.03997		45.57270		43.19200
 H		46.02107		46.03839		40.34306
 H		43.34294		45.09136		41.47918
 H		42.11013		47.68750		43.28882
 H		45.23162		49.11556		43.72066
 H		47.38293		45.25457		42.73301
 H		46.61533		43.98339		41.55425
 H		43.52006		44.03995		39.45021
 O		42.85959		49.69549		38.87779
 O		44.06259		49.60890		38.41687
 H		41.30606		54.24869		36.70311
 H		39.55759		46.43186		33.37773
 H		37.59815		47.66320		37.42867
 H		37.60541		43.64578		40.96882
 H		43.42741		42.77068		34.74377
 H		46.04094		49.08905		33.66124
*
