%chk=FeH2O62+-Opt.chk
#P B3LYP/6-31G*

Generated by Multiwfn

  2  1
Fe     6.20421600    0.95216100    0.36096300
O      8.28513000    0.95711600    0.45831300
O      6.21260200   -1.13020800    0.30006400
O      6.30054200    1.01270600   -1.71927900
O      4.12306200    0.94708100    0.26384600
O      6.19649900    3.03454800    0.42128200
O      6.10831400    0.89135100    2.44100300
H      3.55865000    1.71279200    0.26170100
H      3.56391200    0.17894800    0.21688800
H      6.23262800    3.61897300   -0.32839900
H      6.15516200    3.57426000    1.20351200
H      6.84909900    0.87892100    3.03763200
H      5.31618900    0.87148200    2.96732400
H      8.84417300    1.72532300    0.50523100
H      8.84950300    0.19138200    0.46135300
H      6.24650300   -1.66948200   -0.48282400
H      6.18266300   -1.71500700    1.04972300
H      7.09255800    1.03049700   -2.24584000
H      5.55960500    1.02950500   -2.31561300
 
