! RKS B3LYP cc-pvdz D3 pal8 Opt Freq NoUseSym

*xyz 0 1
 C                 -6.65646033   -1.61889996    0.00000000
 H                 -6.12272786   -2.54627780    0.00000000
 H                 -7.72645933   -1.61743693   -0.00000000
 C                 -5.97725622   -0.44618993    0.00000000
 H                 -6.51098869    0.48118790    0.00000000
 C                 -4.43725766   -0.44829561   -0.00000000
 H                 -3.90352519   -1.37567345    0.00000000
 C                 -3.75805355    0.72441442    0.00000000
 H                 -4.29178602    1.65179225   -0.00000000
 H                 -2.68805455    0.72295138    0.00000000
*

